LTspice 24.0.12 for Windows
Circuit: * C:\Users\srudr\AppData\Local\Programs\ADI\LTspice\NEURO TC\2_Coincidence.asc
Start Time: Tue Mar 10 23:34:06 2026
solver = Normal
Maximum thread count: 12
tnom = 27
temp = 27
method = modified trap
Limiting rise time of source v1 to 2e-07
Limiting fall time of source v1 to 2e-07
Limiting rise time of source v2 to 2e-07
Limiting fall time of source v2 to 2e-07
Direct Newton iteration failed to find .op point.  (Use ".option noopiter" to skip.)
Starting Gmin stepping
Gmin = 10
Gmin = 1.07374
Gmin = 0.115292
Gmin = 0.0123794
Gmin = 0.00132923
Gmin = 0.000142725
Gmin = 1.5325e-05
Gmin = 1.6455e-06
Gmin = 1.76685e-07
Gmin = 1.89714e-08
Gmin = 2.03704e-09
Gmin = 2.18725e-10
Gmin = 2.34854e-11
Gmin = 2.52173e-12
Gmin = 2.70769e-13
Gmin = 0
Gmin stepping succeeded in finding the operating point.

Heightened Def Con from 1.40313e-05 ++++++++++++++++++++++++++++++++++++++++++++++++++Fatal Error: Analysis:  Time step too small; time = 1.40313e-05, timestep = 1.25e-19: trouble with u1:q-instance s:u1:1

